[General]
network = inet.applications.vehicular.TraficGeneratorNetwork
sim-time-limit = 10s

*.node*.application.trafficDistribution = "deterministic"
